---- qbsp / ericw-tools v0.18.1 ----
Input file: dusk.map
Output file: dusk.bsp

---- LoadMapFile ----
         1596 faces
          261 brushes
           13 entities
            6 unique texnames
         1030 texinfo

Opened WAD: C:/Users/Eric/Documents/GitHub/Dusk-MyQuakeMap/wads/prototype_1_2.wad
Processing hull 0...
---- Brush_LoadEntity ----
          261 brushes
          549 planes
---- CSGFaces ----
         1596 brushfaces
         3783 csgfaces
         3398 mergedfaces
---- SolidBSP ----
         7602 split nodes
         3289 solid leafs
         4237 empty leafs
           77 water leafs
            0 detail leafs
            0 detail illusionary leafs
            0 detail fence leafs
            0 illusionary visblocker leafs
        14657 leaffaces
        13127 nodefaces
---- Portalize ----
         4314 vis leafs
         4314 vis clusters
        12761 vis portals
---- FillOutside ----
*** WARNING 10: Reached occupant at (-400 384 368), no filling performed.
Leak file written to dusk.pts
---- MakeFaceEdges ----
---- GrowRegions ----
Processing hull 1...
Processing hull 2...
---- WriteBSPFile ----
Wrote dusk.bsp
         1241 planes            24820
        15365 vertexes         184380
         7602 nodes            182448
          923 texinfo           36920
        13127 faces            262540
         4005 clipnodes         32040
         4315 leafs            120820
        14657 marksurfaces      29314
        52417 surfedges        209668
        32484 edges            129936
            6 textures         114508
              lightdata             0
              visdata               0
              entdata             882

0.749 seconds elapsed
Peak memory usage: 52781850 (50.3M)
