---- qbsp / ericw-tools v0.18.1 ----
Input file: dusk.map
Output file: dusk.bsp

---- LoadMapFile ----
         1596 faces
          261 brushes
            7 entities
            6 unique texnames
         1030 texinfo

Opened WAD: C:/Users/Eric/Documents/GitHub/Dusk-MyQuakeMap/wads/prototype_1_2.wad
Processing hull 0...
---- Brush_LoadEntity ----
          261 brushes
          549 planes
---- CSGFaces ----
         1596 brushfaces
         3775 csgfaces
         3396 mergedfaces
---- SolidBSP ----
         7593 split nodes
         3285 solid leafs
         4232 empty leafs
           77 water leafs
            0 detail leafs
            0 detail illusionary leafs
            0 detail fence leafs
            0 illusionary visblocker leafs
        14667 leaffaces
        13137 nodefaces
---- Portalize ----
         4309 vis leafs
         4309 vis clusters
        12752 vis portals
---- FillOutside ----
*** WARNING 10: Reached occupant at (570 -16 168), no filling performed.
Leak file written to dusk.pts
---- MakeFaceEdges ----
---- GrowRegions ----
Processing hull 1...
Processing hull 2...
---- WriteBSPFile ----
Wrote dusk.bsp
         1241 planes            24820
        15371 vertexes         184452
         7593 nodes            182232
          923 texinfo           36920
        13137 faces            262740
         4040 clipnodes         32320
         4310 leafs            120680
        14667 marksurfaces      29334
        52458 surfedges        209832
        32498 edges            129992
            6 textures         114508
              lightdata             0
              visdata               0
              entdata             397

0.710 seconds elapsed
Peak memory usage: 52784878 (50.3M)
