---- qbsp / ericw-tools v0.18.1 ----
Input file: dusk.map
Output file: dusk.bsp

---- LoadMapFile ----
*** WARNING 06: No info_player_deathmatch entities in level
         1596 faces
          261 brushes
            6 entities
            6 unique texnames
         1030 texinfo

Opened WAD: C:/Users/Eric/Documents/GitHub/Dusk-MyQuakeMap/wads/prototype_1_2.wad
Processing hull 0...
---- Brush_LoadEntity ----
          261 brushes
          550 planes
---- CSGFaces ----
         1596 brushfaces
         3784 csgfaces
         3398 mergedfaces
---- SolidBSP ----
         7602 split nodes
         3290 solid leafs
         4236 empty leafs
           77 water leafs
            0 detail leafs
            0 detail illusionary leafs
            0 detail fence leafs
            0 illusionary visblocker leafs
        14703 leaffaces
        13150 nodefaces
---- Portalize ----
         4313 vis leafs
         4313 vis clusters
        12736 vis portals
---- FillOutside ----
*** WARNING 10: Reached occupant at (496 48 160), no filling performed.
Leak file written to dusk.pts
---- MakeFaceEdges ----
---- GrowRegions ----
Processing hull 1...
*** WARNING 19: No entities in empty space -- no filling performed (hull 1)
Processing hull 2...
*** WARNING 19: No entities in empty space -- no filling performed (hull 2)
---- WriteBSPFile ----
Wrote dusk.bsp
         1528 planes            30560
        15387 vertexes         184644
         7602 nodes            182448
          923 texinfo           36920
        13150 faces            263000
        10543 clipnodes         84344
         4314 leafs            120792
        14703 marksurfaces      29406
        52511 surfedges        210044
        32534 edges            130136
            6 textures         114508
              lightdata             0
              visdata               0
              entdata             348

0.639 seconds elapsed
Peak memory usage: 54839598 (52.3M)
