---- qbsp / ericw-tools v0.18.1 ----
Input file: dusk.map
Output file: dusk.bsp

---- LoadMapFile ----
*** WARNING 06: No info_player_deathmatch entities in level
         1554 faces
          257 brushes
           20 entities
            5 unique texnames
          985 texinfo

Opened WAD: C:/Users/Eric/Documents/GitHub/Dusk-MyQuakeMap/wads/prototype_1_2.wad
Processing hull 0...
---- Brush_LoadEntity ----
          257 brushes
          455 planes
---- CSGFaces ----
         1554 brushfaces
         3308 csgfaces
         3128 mergedfaces
---- SolidBSP ----
         6592 split nodes
         2595 solid leafs
         3838 empty leafs
          160 water leafs
            0 detail leafs
            0 detail illusionary leafs
            0 detail fence leafs
            0 illusionary visblocker leafs
        14727 leaffaces
        13244 nodefaces
---- Portalize ----
         3998 vis leafs
         3998 vis clusters
        11796 vis portals
---- FillOutside ----
*** WARNING 10: Reached occupant at (-8 24 200), no filling performed.
Leak file written to dusk.pts
---- MakeFaceEdges ----
---- GrowRegions ----
Processing hull 1...
*** WARNING 19: No entities in empty space -- no filling performed (hull 1)
Processing hull 2...
*** WARNING 19: No entities in empty space -- no filling performed (hull 2)
---- WriteBSPFile ----
Wrote dusk.bsp
         1343 planes            26860
        14662 vertexes         175944
         6592 nodes            158208
          849 texinfo           33960
        13244 faces            264880
        10332 clipnodes         82656
         3999 leafs            111972
        14727 marksurfaces      29454
        52928 surfedges        211712
        31245 edges            124980
            5 textures          76384
              lightdata             0
              visdata               0
              entdata             264

0.620 seconds elapsed
Peak memory usage: 53783058 (51.3M)
