---- qbsp / ericw-tools v0.18.1 ----
Input file: RustyLabatory.map
Output file: RustyLabatory.bsp

---- LoadMapFile ----
         3153 faces
          525 brushes
          173 entities
           16 unique texnames
         1060 texinfo

Opened WAD: C:/Users/Eric/Documents/GitHub/RustyLaboratory-QuakeMap/wads/prototype_1_2.wad
Processing hull 0...
---- Brush_LoadEntity ----
          445 brushes
          765 planes
---- CSGFaces ----
         2679 brushfaces
         4322 csgfaces
         3572 mergedfaces
---- SolidBSP ----
         5283 split nodes
         2218 solid leafs
         3062 empty leafs
            4 water leafs
            0 detail leafs
            0 detail illusionary leafs
            0 detail fence leafs
            0 illusionary visblocker leafs
         9201 leaffaces
         8663 nodefaces
---- Portalize ----
         3066 vis leafs
         3066 vis clusters
         8874 vis portals
---- FillOutside ----
*** WARNING 10: Reached occupant at (106 -1966 -79), no filling performed.
Leak file written to RustyLabatory.pts
---- MakeFaceEdges ----
---- GrowRegions ----
Processing hull 1...
*** WARNING 10: Reached occupant at (-41 -24 52), no filling performed.
Processing hull 2...
*** WARNING 10: Reached occupant at (-41 -24 52), no filling performed.
---- WriteBSPFile ----
Wrote RustyLabatory.bsp
         2061 planes            41220
        11174 vertexes         134088
         5696 nodes            136704
          964 texinfo           38560
         9078 faces            181560
        10700 clipnodes         85600
         3479 leafs             97412
         9616 marksurfaces      19232
        36323 surfedges        145292
        23456 edges             93824
           18 textures          41596
              lightdata             0
              visdata               0
              entdata           14069

0.637 seconds elapsed
Peak memory usage: 46122220 (44.0M)
