---- qbsp / ericw-tools v0.18.1 ----
Input file: RustyLabatory.map
Output file: RustyLabatory.bsp

---- LoadMapFile ----
*** WARNING 06: No info_player_deathmatch entities in level
         1967 faces
          327 brushes
           42 entities
            6 unique texnames
          465 texinfo

Opened WAD: C:/Users/Eric/Documents/GitHub/RustyLaboratory-QuakeMap/wads/prototype_1_2.wad
Processing hull 0...
---- Brush_LoadEntity ----
          327 brushes
          427 planes
---- CSGFaces ----
         1967 brushfaces
         2512 csgfaces
         2098 mergedfaces
---- SolidBSP ----
         2623 split nodes
         1045 solid leafs
         1579 empty leafs
            0 water leafs
            0 detail leafs
            0 detail illusionary leafs
            0 detail fence leafs
            0 illusionary visblocker leafs
         4760 leaffaces
         4458 nodefaces
---- Portalize ----
         1579 vis leafs
         1579 vis clusters
         4634 vis portals
---- FillOutside ----
*** WARNING 10: Reached occupant at (-16 -16 40), no filling performed.
Leak file written to RustyLabatory.pts
---- MakeFaceEdges ----
---- GrowRegions ----
Processing hull 1...
*** WARNING 19: No entities in empty space -- no filling performed (hull 1)
Processing hull 2...
*** WARNING 19: No entities in empty space -- no filling performed (hull 2)
*** WARNING 16: Texture __TB_empty not found
---- WriteBSPFile ----
Wrote RustyLabatory.bsp
          937 planes            18740
         5495 vertexes          65940
         2623 nodes             62952
          445 texinfo           17800
         4458 faces             89160
         5690 clipnodes         45520
         1580 leafs             44240
         4760 marksurfaces       9520
        17844 surfedges         71376
        11635 edges             46540
            6 textures           7028
              lightdata             0
              visdata               0
              entdata             175

0.407 seconds elapsed
Peak memory usage: 25777376 (24.6M)
