---- qbsp / ericw-tools v0.18.1 ----
Input file: zombiemap.map
Output file: zombiemap.bsp

---- LoadMapFile ----
*** WARNING 06: No info_player_deathmatch entities in level
           48 faces
            8 brushes
           10 entities
            4 unique texnames
           18 texinfo

Opened WAD: C:/QuakeDev/wads/START.WAD
Processing hull 0...
---- Brush_LoadEntity ----
            8 brushes
           19 planes
---- CSGFaces ----
           48 brushfaces
           54 csgfaces
           54 mergedfaces
---- SolidBSP ----
           86 split nodes
           29 solid leafs
           58 empty leafs
            0 water leafs
            0 detail leafs
            0 detail illusionary leafs
            0 detail fence leafs
            0 illusionary visblocker leafs
          165 leaffaces
          163 nodefaces
---- Portalize ----
           58 vis leafs
           58 vis clusters
          118 vis portals
---- FillOutside ----
           51 outleafs
---- MergeAll ----
           24 mergefaces
---- SolidBSP ----
           19 split nodes
           14 solid leafs
            6 empty leafs
            0 water leafs
            0 detail leafs
            0 detail illusionary leafs
            0 detail fence leafs
            0 illusionary visblocker leafs
           51 leaffaces
           44 nodefaces
---- Portalize ----
            6 vis leafs
            6 vis clusters
            7 vis portals
---- Tjunc ----
           46 world edges
          162 edge points
           52 edges added by tjunctions
            0 faces added by tjunctions
---- MakeFaceEdges ----
---- GrowRegions ----
Processing hull 1...
Processing hull 2...
*** WARNING 19: No entities in empty space -- no filling performed (hull 2)
---- WriteBSPFile ----
Wrote zombiemap.bsp
           44 planes              880
           68 vertexes            816
           19 nodes               456
            6 texinfo             240
           44 faces               880
          115 clipnodes           920
            7 leafs               196
           51 marksurfaces        102
          228 surfedges           912
          115 edges               460
            4 textures          23732
              lightdata             0
              visdata               0
              entdata             649

0.086 seconds elapsed
Peak memory usage: 600394 (0.6M)
